
  -OEChem-04012412283D

 32 34  0     0  0  0  0  0  0999 V2000
   -9.2178    4.6079  -16.3495 C   0  0  0  0  0  0  0  0  0  0  0  0
   -9.8718    4.4537  -17.5383 C   0  0  0  0  0  0  0  0  0  0  0  0
   -7.9125    5.0368  -16.3256 C   0  0  0  0  0  0  0  0  0  0  0  0
   -9.2368    4.7210  -18.7191 C   0  0  0  0  0  0  0  0  0  0  0  0
   -5.3235    5.8618  -18.7560 C   0  0  0  0  0  0  0  0  0  0  0  0
   -6.0631    5.7070  -19.9061 C   0  0  0  0  0  0  0  0  0  0  0  0
   -7.2466    5.3088  -17.5073 C   0  0  0  0  0  0  0  0  0  0  0  0
   -7.9255    5.1257  -18.7222 C   0  0  0  0  0  0  0  0  0  0  0  0
   -5.9070    5.6931  -17.5340 C   0  0  0  0  0  0  0  0  0  0  0  0
   -4.0890    4.9028  -16.1939 C   0  0  0  0  0  0  0  0  0  0  0  0
   -5.2912    6.9536  -15.5511 C   0  0  0  0  0  0  0  0  0  0  0  0
   -3.2982    5.0979  -14.9959 C   0  0  0  0  0  0  0  0  0  0  0  0
   -4.2648    7.0652  -14.5507 C   0  0  0  0  0  0  0  0  0  0  0  0
   -7.3317    5.3348  -19.8881 N   0  0  0  0  0  0  0  0  0  0  0  0
   -5.1092    5.8545  -16.4277 N   0  0  0  0  0  0  0  0  0  0  0  0
   -3.9414    5.8403  -14.0536 N   0  3  0  0  0  0  0  0  0  0  0  0
   -9.7292    4.3917  -15.4232 H   0  0  0  0  0  0  0  0  0  0  0  0
  -10.8983    4.1180  -17.5458 H   0  0  0  0  0  0  0  0  0  0  0  0
   -7.4046    5.1621  -15.3807 H   0  0  0  0  0  0  0  0  0  0  0  0
   -9.7689    4.6133  -19.6527 H   0  0  0  0  0  0  0  0  0  0  0  0
   -4.2763    6.1180  -18.8208 H   0  0  0  0  0  0  0  0  0  0  0  0
   -5.5900    5.8965  -20.8583 H   0  0  0  0  0  0  0  0  0  0  0  0
   -3.4052    4.9245  -17.0553 H   0  0  0  0  0  0  0  0  0  0  0  0
   -4.5624    3.9122  -16.1265 H   0  0  0  0  0  0  0  0  0  0  0  0
   -6.2605    6.8377  -15.0441 H   0  0  0  0  0  0  0  0  0  0  0  0
   -5.2978    7.8776  -16.1479 H   0  0  0  0  0  0  0  0  0  0  0  0
   -3.0622    4.1131  -14.5664 H   0  0  0  0  0  0  0  0  0  0  0  0
   -2.3649    5.6112  -15.2707 H   0  0  0  0  0  0  0  0  0  0  0  0
   -3.3700    7.5198  -15.0008 H   0  0  0  0  0  0  0  0  0  0  0  0
   -4.6274    7.7031  -13.7312 H   0  0  0  0  0  0  0  0  0  0  0  0
   -4.7772    5.3668  -13.7758 H   0  0  0  0  0  0  0  0  0  0  0  0
   -3.3435    5.9546  -13.2602 H   0  0  0  0  0  0  0  0  0  0  0  0
  1  2  1  0  0  0  0
  1  3  2  0  0  0  0
  2  4  2  0  0  0  0
  3  7  1  0  0  0  0
  4  8  1  0  0  0  0
  5  6  1  0  0  0  0
  5  9  2  0  0  0  0
  6 14  2  0  0  0  0
  7  8  2  0  0  0  0
  7  9  1  0  0  0  0
  8 14  1  0  0  0  0
  9 15  1  0  0  0  0
 10 12  1  0  0  0  0
 10 15  1  0  0  0  0
 11 13  1  0  0  0  0
 11 15  1  0  0  0  0
 12 16  1  0  0  0  0
 13 16  1  0  0  0  0
  1 17  1  0  0  0  0
  2 18  1  0  0  0  0
  3 19  1  0  0  0  0
  4 20  1  0  0  0  0
  5 21  1  0  0  0  0
  6 22  1  0  0  0  0
 10 23  1  0  0  0  0
 10 24  1  0  0  0  0
 11 25  1  0  0  0  0
 11 26  1  0  0  0  0
 12 27  1  0  0  0  0
 12 28  1  0  0  0  0
 13 29  1  0  0  0  0
 13 30  1  0  0  0  0
 16 31  1  0  0  0  0
 16 32  1  0  0  0  0
M  CHG  1  16   1
M  END
> <compound_name>
unknown_ligand_0

> <provenance>
{"isomeric_smiles": "c1ccc2c(c1)c(ccn2)N3CC[NH2+]CC3", "inchi": "InChI=1S/C13H15N3/c1-2-4-12-11(3-1)13(5-6-15-12)16-9-7-14-8-10-16/h1-6,14H,7-10H2/p+1", "inchi_key": "CGSWRHKBLLDUHO-UHFFFAOYSA-O", "fixed_inchi": "InChI=1/C13H15N3/c1-2-4-12-11(3-1)13(5-6-15-12)16-9-7-14-8-10-16/h1-6,14H,7-10H2/p+1/fC13H16N3/h14H/q+1", "fixed_inchikey": "CGSWRHKBLLDUHO-FOEMDWODNA-O"}

> <data_format>
sdf

> <docking-confidence-POSIT>
0.91

> <_POSIT_method>
SHAPEFIT

$$$$
